/*--------------------------------*- C++ -*----------------------------------*\
| =========                 |                                                 |
| \\      /  F ield         | OpenFOAM: The Open Source CFD Toolbox           |
|  \\    /   O peration     | Version:  2312                                  |
|   \\  /    A nd           | Website:  www.openfoam.com                      |
|    \\/     M anipulation  |                                                 |
\*---------------------------------------------------------------------------*/
FoamFile
{
    version     2.0;
    format      binary;
    arch        "LSB;label=32;scalar=64";
    class       polyBoundaryMesh;
    location    "constant/polyMesh";
    object      boundary;
}
// * * * * * * * * * * * * * * * * * * * * * * * * * * * * * * * * * * * * * //

8
(
    frontAndBack
    {
        type            patch;
        nFaces          384;
        startFace       12020;
    }
    inlet
    {
        type            patch;
        nFaces          0;
        startFace       12404;
    }
    outlet
    {
        type            patch;
        nFaces          0;
        startFace       12404;
    }
    lowerWall
    {
        type            wall;
        inGroups        1(wall);
        nFaces          176;
        startFace       12404;
    }
    upperWall
    {
        type            patch;
        nFaces          180;
        startFace       12580;
    }
    procBoundary0to1
    {
        type            processor;
        inGroups        1(processor);
        nFaces          404;
        startFace       12760;
        matchTolerance  0.0001;
        transform       unknown;
        myProcNo        0;
        neighbProcNo    1;
    }
    procBoundary0to3
    {
        type            processor;
        inGroups        1(processor);
        nFaces          280;
        startFace       13164;
        matchTolerance  0.0001;
        transform       unknown;
        myProcNo        0;
        neighbProcNo    3;
    }
    procBoundary0to6
    {
        type            processor;
        inGroups        1(processor);
        nFaces          264;
        startFace       13444;
        matchTolerance  0.0001;
        transform       unknown;
        myProcNo        0;
        neighbProcNo    6;
    }
)

// ************************************************************************* //
