/*--------------------------------*- C++ -*----------------------------------*\
| =========                 |                                                 |
| \\      /  F ield         | OpenFOAM: The Open Source CFD Toolbox           |
|  \\    /   O peration     | Version:  2312                                  |
|   \\  /    A nd           | Website:  www.openfoam.com                      |
|    \\/     M anipulation  |                                                 |
\*---------------------------------------------------------------------------*/
FoamFile
{
    version     2.0;
    format      binary;
    arch        "LSB;label=32;scalar=64";
    class       polyBoundaryMesh;
    location    "constant/polyMesh";
    object      boundary;
}
// * * * * * * * * * * * * * * * * * * * * * * * * * * * * * * * * * * * * * //

8
(
    frontAndBack
    {
        type            patch;
        nFaces          360;
        startFace       12120;
    }
    inlet
    {
        type            patch;
        nFaces          0;
        startFace       12480;
    }
    outlet
    {
        type            patch;
        nFaces          288;
        startFace       12480;
    }
    lowerWall
    {
        type            wall;
        inGroups        1(wall);
        nFaces          168;
        startFace       12768;
    }
    upperWall
    {
        type            patch;
        nFaces          192;
        startFace       12936;
    }
    procBoundary7to4
    {
        type            processor;
        inGroups        1(processor);
        nFaces          1;
        startFace       13128;
        matchTolerance  0.0001;
        transform       unknown;
        myProcNo        7;
        neighbProcNo    4;
    }
    procBoundary7to5
    {
        type            processor;
        inGroups        1(processor);
        nFaces          359;
        startFace       13129;
        matchTolerance  0.0001;
        transform       unknown;
        myProcNo        7;
        neighbProcNo    5;
    }
    procBoundary7to6
    {
        type            processor;
        inGroups        1(processor);
        nFaces          312;
        startFace       13488;
        matchTolerance  0.0001;
        transform       unknown;
        myProcNo        7;
        neighbProcNo    6;
    }
)

// ************************************************************************* //
