/*--------------------------------*- C++ -*----------------------------------*\
| =========                 |                                                 |
| \\      /  F ield         | OpenFOAM: The Open Source CFD Toolbox           |
|  \\    /   O peration     | Version:  2312                                  |
|   \\  /    A nd           | Website:  www.openfoam.com                      |
|    \\/     M anipulation  |                                                 |
\*---------------------------------------------------------------------------*/
FoamFile
{
    version     2.0;
    format      binary;
    arch        "LSB;label=32;scalar=64";
    class       polyBoundaryMesh;
    location    "constant/polyMesh";
    object      boundary;
}
// * * * * * * * * * * * * * * * * * * * * * * * * * * * * * * * * * * * * * //

7
(
    frontAndBack
    {
        type            patch;
        nFaces          432;
        startFace       12040;
    }
    inlet
    {
        type            patch;
        nFaces          265;
        startFace       12472;
    }
    outlet
    {
        type            patch;
        nFaces          0;
        startFace       12737;
    }
    lowerWall
    {
        type            wall;
        inGroups        1(wall);
        nFaces          193;
        startFace       12737;
    }
    upperWall
    {
        type            patch;
        nFaces          165;
        startFace       12930;
    }
    procBoundary2to1
    {
        type            processor;
        inGroups        1(processor);
        nFaces          361;
        startFace       13095;
        matchTolerance  0.0001;
        transform       unknown;
        myProcNo        2;
        neighbProcNo    1;
    }
    procBoundary2to3
    {
        type            processor;
        inGroups        1(processor);
        nFaces          364;
        startFace       13456;
        matchTolerance  0.0001;
        transform       unknown;
        myProcNo        2;
        neighbProcNo    3;
    }
)

// ************************************************************************* //
