/*--------------------------------*- C++ -*----------------------------------*\
| =========                 |                                                 |
| \\      /  F ield         | OpenFOAM: The Open Source CFD Toolbox           |
|  \\    /   O peration     | Version:  2312                                  |
|   \\  /    A nd           | Website:  www.openfoam.com                      |
|    \\/     M anipulation  |                                                 |
\*---------------------------------------------------------------------------*/
FoamFile
{
    version     2.0;
    format      binary;
    arch        "LSB;label=32;scalar=64";
    class       polyBoundaryMesh;
    location    "constant/polyMesh";
    object      boundary;
}
// * * * * * * * * * * * * * * * * * * * * * * * * * * * * * * * * * * * * * //

8
(
    frontAndBack
    {
        type            patch;
        nFaces          336;
        startFace       12219;
    }
    inlet
    {
        type            patch;
        nFaces          311;
        startFace       12555;
    }
    outlet
    {
        type            patch;
        nFaces          0;
        startFace       12866;
    }
    lowerWall
    {
        type            wall;
        inGroups        1(wall);
        nFaces          168;
        startFace       12866;
    }
    upperWall
    {
        type            patch;
        nFaces          196;
        startFace       13034;
    }
    procBoundary3to0
    {
        type            processor;
        inGroups        1(processor);
        nFaces          280;
        startFace       13230;
        matchTolerance  0.0001;
        transform       unknown;
        myProcNo        3;
        neighbProcNo    0;
    }
    procBoundary3to1
    {
        type            processor;
        inGroups        1(processor);
        nFaces          31;
        startFace       13510;
        matchTolerance  0.0001;
        transform       unknown;
        myProcNo        3;
        neighbProcNo    1;
    }
    procBoundary3to2
    {
        type            processor;
        inGroups        1(processor);
        nFaces          364;
        startFace       13541;
        matchTolerance  0.0001;
        transform       unknown;
        myProcNo        3;
        neighbProcNo    2;
    }
)

// ************************************************************************* //
